*SPEF "ieee 1481-1999"
*DESIGN "tt_um_josue_olivos_alu"
*DATE "18:31:34 Wednesday June 17, 2026"
*VENDOR "The OpenROAD Project"
*PROGRAM "OpenROAD"
*VERSION "dcf36133a369abc8f3c5e5738cd4d82e4903c0e0"
*DESIGN_FLOW "NAME_SCOPE LOCAL" "PIN_CAP NONE"
*DIVIDER /
*DELIMITER :
*BUS_DELIMITER []
*T_UNIT 1 NS
*C_UNIT 1 PF
*R_UNIT 1 OHM
*L_UNIT 1 HENRY

*NAME_MAP
*3 clk
*4 ena
*5 rst_n
*6 ui_in[0]
*7 ui_in[1]
*8 ui_in[2]
*9 ui_in[3]
*10 ui_in[4]
*11 ui_in[5]
*12 ui_in[6]
*13 ui_in[7]
*14 uio_in[0]
*15 uio_in[1]
*16 uio_in[2]
*17 uio_in[3]
*18 uio_in[4]
*19 uio_in[5]
*20 uio_in[6]
*21 uio_in[7]
*22 net
*23 net12
*24 net13
*25 net14
*26 net15
*27 net16
*28 net17
*29 net18
*30 net19
*31 net20
*32 net21
*33 net22
*34 net23
*35 net24
*36 net25
*37 net26
*38 uo_out[0]
*39 uo_out[1]
*40 uo_out[2]
*41 uo_out[3]
*42 uo_out[4]
*43 uo_out[5]
*44 net27
*45 net28
*46 _000_
*47 _001_
*48 _002_
*49 _003_
*50 _004_
*51 _005_
*52 _006_
*53 _007_
*54 _008_
*55 _009_
*56 _010_
*57 _011_
*58 _012_
*59 _013_
*60 _014_
*61 _015_
*62 _016_
*63 _017_
*64 _018_
*65 _019_
*66 _020_
*67 _021_
*68 _022_
*69 _023_
*70 _024_
*71 _025_
*72 _026_
*73 _027_
*74 _028_
*75 _029_
*76 _030_
*77 _031_
*78 _032_
*79 _033_
*80 _034_
*81 _035_
*82 _036_
*83 _037_
*84 _038_
*85 _039_
*86 _040_
*87 _041_
*88 _042_
*89 _043_
*90 _044_
*91 _045_
*92 _046_
*93 _047_
*94 _048_
*95 _049_
*96 _050_
*97 _051_
*98 _052_
*99 _053_
*100 _054_
*101 _055_
*102 _056_
*103 _057_
*104 _058_
*105 _059_
*106 _060_
*107 carry_out
*108 net1
*109 net10
*110 net11
*111 net2
*112 net3
*113 net4
*114 net5
*115 net6
*116 net7
*117 net8
*118 net9
*119 zero_flag
*120 FILLER_0_100
*121 FILLER_0_103
*122 FILLER_0_106
*123 FILLER_0_109
*124 FILLER_0_113
*125 FILLER_0_116
*126 FILLER_0_119
*127 FILLER_0_12
*128 FILLER_0_122
*129 FILLER_0_125
*130 FILLER_0_128
*131 FILLER_0_131
*132 FILLER_0_134
*133 FILLER_0_137
*134 FILLER_0_141
*135 FILLER_0_144
*136 FILLER_0_147
*137 FILLER_0_15
*138 FILLER_0_150
*139 FILLER_0_153
*140 FILLER_0_156
*141 FILLER_0_159
*142 FILLER_0_162
*143 FILLER_0_165
*144 FILLER_0_169
*145 FILLER_0_172
*146 FILLER_0_175
*147 FILLER_0_178
*148 FILLER_0_18
*149 FILLER_0_181
*150 FILLER_0_184
*151 FILLER_0_187
*152 FILLER_0_190
*153 FILLER_0_193
*154 FILLER_0_197
*155 FILLER_0_200
*156 FILLER_0_203
*157 FILLER_0_206
*158 FILLER_0_209
*159 FILLER_0_21
*160 FILLER_0_212
*161 FILLER_0_215
*162 FILLER_0_218
*163 FILLER_0_221
*164 FILLER_0_225
*165 FILLER_0_228
*166 FILLER_0_231
*167 FILLER_0_234
*168 FILLER_0_237
*169 FILLER_0_24
*170 FILLER_0_240
*171 FILLER_0_243
*172 FILLER_0_246
*173 FILLER_0_249
*174 FILLER_0_253
*175 FILLER_0_256
*176 FILLER_0_259
*177 FILLER_0_262
*178 FILLER_0_265
*179 FILLER_0_268
*180 FILLER_0_27
*181 FILLER_0_271
*182 FILLER_0_274
*183 FILLER_0_277
*184 FILLER_0_281
*185 FILLER_0_284
*186 FILLER_0_287
*187 FILLER_0_29
*188 FILLER_0_290
*189 FILLER_0_293
*190 FILLER_0_296
*191 FILLER_0_299
*192 FILLER_0_3
*193 FILLER_0_302
*194 FILLER_0_305
*195 FILLER_0_309
*196 FILLER_0_312
*197 FILLER_0_315
*198 FILLER_0_318
*199 FILLER_0_32
*200 FILLER_0_321
*201 FILLER_0_324
*202 FILLER_0_327
*203 FILLER_0_330
*204 FILLER_0_333
*205 FILLER_0_35
*206 FILLER_0_38
*207 FILLER_0_41
*208 FILLER_0_44
*209 FILLER_0_47
*210 FILLER_0_50
*211 FILLER_0_53
*212 FILLER_0_57
*213 FILLER_0_6
*214 FILLER_0_60
*215 FILLER_0_63
*216 FILLER_0_66
*217 FILLER_0_69
*218 FILLER_0_72
*219 FILLER_0_75
*220 FILLER_0_78
*221 FILLER_0_81
*222 FILLER_0_85
*223 FILLER_0_88
*224 FILLER_0_9
*225 FILLER_0_91
*226 FILLER_0_94
*227 FILLER_0_97
*228 FILLER_10_100
*229 FILLER_10_103
*230 FILLER_10_106
*231 FILLER_10_109
*232 FILLER_10_112
*233 FILLER_10_115
*234 FILLER_10_118
*235 FILLER_10_12
*236 FILLER_10_121
*237 FILLER_10_124
*238 FILLER_10_127
*239 FILLER_10_130
*240 FILLER_10_133
*241 FILLER_10_136
*242 FILLER_10_139
*243 FILLER_10_141
*244 FILLER_10_144
*245 FILLER_10_147
*246 FILLER_10_15
*247 FILLER_10_150
*248 FILLER_10_153
*249 FILLER_10_156
*250 FILLER_10_159
*251 FILLER_10_162
*252 FILLER_10_165
*253 FILLER_10_168
*254 FILLER_10_171
*255 FILLER_10_174
*256 FILLER_10_177
*257 FILLER_10_18
*258 FILLER_10_180
*259 FILLER_10_183
*260 FILLER_10_186
*261 FILLER_10_189
*262 FILLER_10_192
*263 FILLER_10_195
*264 FILLER_10_197
*265 FILLER_10_200
*266 FILLER_10_203
*267 FILLER_10_206
*268 FILLER_10_209
*269 FILLER_10_21
*270 FILLER_10_212
*271 FILLER_10_215
*272 FILLER_10_218
*273 FILLER_10_221
*274 FILLER_10_224
*275 FILLER_10_227
*276 FILLER_10_230
*277 FILLER_10_233
*278 FILLER_10_236
*279 FILLER_10_239
*280 FILLER_10_24
*281 FILLER_10_242
*282 FILLER_10_245
*283 FILLER_10_248
*284 FILLER_10_251
*285 FILLER_10_253
*286 FILLER_10_256
*287 FILLER_10_259
*288 FILLER_10_262
*289 FILLER_10_265
*290 FILLER_10_268
*291 FILLER_10_27
*292 FILLER_10_271
*293 FILLER_10_274
*294 FILLER_10_277
*295 FILLER_10_280
*296 FILLER_10_283
*297 FILLER_10_286
*298 FILLER_10_289
*299 FILLER_10_29
*300 FILLER_10_292
*301 FILLER_10_295
*302 FILLER_10_298
*303 FILLER_10_3
*304 FILLER_10_301
*305 FILLER_10_304
*306 FILLER_10_307
*307 FILLER_10_309
*308 FILLER_10_312
*309 FILLER_10_315
*310 FILLER_10_318
*311 FILLER_10_32
*312 FILLER_10_321
*313 FILLER_10_324
*314 FILLER_10_327
*315 FILLER_10_330
*316 FILLER_10_333
*317 FILLER_10_35
*318 FILLER_10_38
*319 FILLER_10_41
*320 FILLER_10_44
*321 FILLER_10_47
*322 FILLER_10_50
*323 FILLER_10_53
*324 FILLER_10_56
*325 FILLER_10_59
*326 FILLER_10_6
*327 FILLER_10_62
*328 FILLER_10_65
*329 FILLER_10_68
*330 FILLER_10_71
*331 FILLER_10_74
*332 FILLER_10_77
*333 FILLER_10_80
*334 FILLER_10_83
*335 FILLER_10_85
*336 FILLER_10_88
*337 FILLER_10_9
*338 FILLER_10_91
*339 FILLER_10_94
*340 FILLER_10_97
*341 FILLER_11_102
*342 FILLER_11_105
*343 FILLER_11_108
*344 FILLER_11_111
*345 FILLER_11_113
*346 FILLER_11_116
*347 FILLER_11_119
*348 FILLER_11_12
*349 FILLER_11_122
*350 FILLER_11_125
*351 FILLER_11_128
*352 FILLER_11_131
*353 FILLER_11_134
*354 FILLER_11_137
*355 FILLER_11_140
*356 FILLER_11_143
*357 FILLER_11_146
*358 FILLER_11_149
*359 FILLER_11_15
*360 FILLER_11_152
*361 FILLER_11_155
*362 FILLER_11_158
*363 FILLER_11_161
*364 FILLER_11_164
*365 FILLER_11_167
*366 FILLER_11_169
*367 FILLER_11_172
*368 FILLER_11_175
*369 FILLER_11_178
*370 FILLER_11_18
*371 FILLER_11_181
*372 FILLER_11_184
*373 FILLER_11_187
*374 FILLER_11_190
*375 FILLER_11_193
*376 FILLER_11_196
*377 FILLER_11_199
*378 FILLER_11_202
*379 FILLER_11_205
*380 FILLER_11_208
*381 FILLER_11_21
*382 FILLER_11_211
*383 FILLER_11_214
*384 FILLER_11_217
*385 FILLER_11_220
*386 FILLER_11_223
*387 FILLER_11_225
*388 FILLER_11_228
*389 FILLER_11_231
*390 FILLER_11_234
*391 FILLER_11_237
*392 FILLER_11_24
*393 FILLER_11_240
*394 FILLER_11_243
*395 FILLER_11_246
*396 FILLER_11_249
*397 FILLER_11_252
*398 FILLER_11_255
*399 FILLER_11_258
*400 FILLER_11_261
*401 FILLER_11_264
*402 FILLER_11_267
*403 FILLER_11_27
*404 FILLER_11_270
*405 FILLER_11_273
*406 FILLER_11_276
*407 FILLER_11_279
*408 FILLER_11_281
*409 FILLER_11_284
*410 FILLER_11_287
*411 FILLER_11_290
*412 FILLER_11_293
*413 FILLER_11_296
*414 FILLER_11_299
*415 FILLER_11_3
*416 FILLER_11_30
*417 FILLER_11_302
*418 FILLER_11_305
*419 FILLER_11_308
*420 FILLER_11_311
*421 FILLER_11_314
*422 FILLER_11_317
*423 FILLER_11_320
*424 FILLER_11_323
*425 FILLER_11_326
*426 FILLER_11_329
*427 FILLER_11_33
*428 FILLER_11_332
*429 FILLER_11_36
*430 FILLER_11_39
*431 FILLER_11_42
*432 FILLER_11_45
*433 FILLER_11_48
*434 FILLER_11_51
*435 FILLER_11_54
*436 FILLER_11_57
*437 FILLER_11_6
*438 FILLER_11_60
*439 FILLER_11_63
*440 FILLER_11_66
*441 FILLER_11_69
*442 FILLER_11_72
*443 FILLER_11_75
*444 FILLER_11_78
*445 FILLER_11_81
*446 FILLER_11_84
*447 FILLER_11_87
*448 FILLER_11_9
*449 FILLER_11_90
*450 FILLER_11_93
*451 FILLER_11_96
*452 FILLER_11_99
*453 FILLER_12_100
*454 FILLER_12_103
*455 FILLER_12_106
*456 FILLER_12_109
*457 FILLER_12_112
*458 FILLER_12_115
*459 FILLER_12_118
*460 FILLER_12_12
*461 FILLER_12_121
*462 FILLER_12_124
*463 FILLER_12_127
*464 FILLER_12_130
*465 FILLER_12_133
*466 FILLER_12_136
*467 FILLER_12_139
*468 FILLER_12_141
*469 FILLER_12_144
*470 FILLER_12_147
*471 FILLER_12_15
*472 FILLER_12_150
*473 FILLER_12_153
*474 FILLER_12_156
*475 FILLER_12_159
*476 FILLER_12_162
*477 FILLER_12_165
*478 FILLER_12_168
*479 FILLER_12_171
*480 FILLER_12_174
*481 FILLER_12_177
*482 FILLER_12_18
*483 FILLER_12_180
*484 FILLER_12_183
*485 FILLER_12_186
*486 FILLER_12_189
*487 FILLER_12_192
*488 FILLER_12_195
*489 FILLER_12_197
*490 FILLER_12_200
*491 FILLER_12_203
*492 FILLER_12_206
*493 FILLER_12_209
*494 FILLER_12_21
*495 FILLER_12_212
*496 FILLER_12_215
*497 FILLER_12_218
*498 FILLER_12_221
*499 FILLER_12_224
*500 FILLER_12_227
*501 FILLER_12_230
*502 FILLER_12_233
*503 FILLER_12_236
*504 FILLER_12_239
*505 FILLER_12_24
*506 FILLER_12_242
*507 FILLER_12_245
*508 FILLER_12_248
*509 FILLER_12_251
*510 FILLER_12_253
*511 FILLER_12_256
*512 FILLER_12_259
*513 FILLER_12_262
*514 FILLER_12_265
*515 FILLER_12_268
*516 FILLER_12_27
*517 FILLER_12_271
*518 FILLER_12_274
*519 FILLER_12_277
*520 FILLER_12_280
*521 FILLER_12_283
*522 FILLER_12_286
*523 FILLER_12_289
*524 FILLER_12_29
*525 FILLER_12_292
*526 FILLER_12_295
*527 FILLER_12_298
*528 FILLER_12_3
*529 FILLER_12_301
*530 FILLER_12_304
*531 FILLER_12_307
*532 FILLER_12_309
*533 FILLER_12_312
*534 FILLER_12_315
*535 FILLER_12_318
*536 FILLER_12_32
*537 FILLER_12_321
*538 FILLER_12_324
*539 FILLER_12_327
*540 FILLER_12_330
*541 FILLER_12_333
*542 FILLER_12_35
*543 FILLER_12_38
*544 FILLER_12_41
*545 FILLER_12_44
*546 FILLER_12_47
*547 FILLER_12_50
*548 FILLER_12_53
*549 FILLER_12_56
*550 FILLER_12_59
*551 FILLER_12_6
*552 FILLER_12_62
*553 FILLER_12_65
*554 FILLER_12_68
*555 FILLER_12_71
*556 FILLER_12_74
*557 FILLER_12_77
*558 FILLER_12_80
*559 FILLER_12_83
*560 FILLER_12_85
*561 FILLER_12_88
*562 FILLER_12_9
*563 FILLER_12_91
*564 FILLER_12_94
*565 FILLER_12_97
*566 FILLER_13_102
*567 FILLER_13_105
*568 FILLER_13_108
*569 FILLER_13_111
*570 FILLER_13_113
*571 FILLER_13_116
*572 FILLER_13_119
*573 FILLER_13_12
*574 FILLER_13_122
*575 FILLER_13_125
*576 FILLER_13_128
*577 FILLER_13_131
*578 FILLER_13_134
*579 FILLER_13_137
*580 FILLER_13_140
*581 FILLER_13_143
*582 FILLER_13_146
*583 FILLER_13_149
*584 FILLER_13_15
*585 FILLER_13_152
*586 FILLER_13_155
*587 FILLER_13_158
*588 FILLER_13_161
*589 FILLER_13_164
*590 FILLER_13_167
*591 FILLER_13_169
*592 FILLER_13_172
*593 FILLER_13_175
*594 FILLER_13_178
*595 FILLER_13_18
*596 FILLER_13_181
*597 FILLER_13_184
*598 FILLER_13_187
*599 FILLER_13_190
*600 FILLER_13_193
*601 FILLER_13_196
*602 FILLER_13_199
*603 FILLER_13_202
*604 FILLER_13_205
*605 FILLER_13_208
*606 FILLER_13_21
*607 FILLER_13_211
*608 FILLER_13_214
*609 FILLER_13_217
*610 FILLER_13_220
*611 FILLER_13_223
*612 FILLER_13_225
*613 FILLER_13_228
*614 FILLER_13_231
*615 FILLER_13_234
*616 FILLER_13_237
*617 FILLER_13_24
*618 FILLER_13_240
*619 FILLER_13_243
*620 FILLER_13_246
*621 FILLER_13_249
*622 FILLER_13_252
*623 FILLER_13_255
*624 FILLER_13_258
*625 FILLER_13_261
*626 FILLER_13_264
*627 FILLER_13_267
*628 FILLER_13_27
*629 FILLER_13_270
*630 FILLER_13_273
*631 FILLER_13_276
*632 FILLER_13_279
*633 FILLER_13_281
*634 FILLER_13_284
*635 FILLER_13_287
*636 FILLER_13_290
*637 FILLER_13_293
*638 FILLER_13_296
*639 FILLER_13_299
*640 FILLER_13_3
*641 FILLER_13_30
*642 FILLER_13_302
*643 FILLER_13_305
*644 FILLER_13_308
*645 FILLER_13_311
*646 FILLER_13_314
*647 FILLER_13_317
*648 FILLER_13_320
*649 FILLER_13_323
*650 FILLER_13_326
*651 FILLER_13_329
*652 FILLER_13_33
*653 FILLER_13_332
*654 FILLER_13_36
*655 FILLER_13_39
*656 FILLER_13_42
*657 FILLER_13_45
*658 FILLER_13_48
*659 FILLER_13_51
*660 FILLER_13_54
*661 FILLER_13_57
*662 FILLER_13_6
*663 FILLER_13_60
*664 FILLER_13_63
*665 FILLER_13_66
*666 FILLER_13_69
*667 FILLER_13_72
*668 FILLER_13_75
*669 FILLER_13_78
*670 FILLER_13_81
*671 FILLER_13_84
*672 FILLER_13_87
*673 FILLER_13_9
*674 FILLER_13_90
*675 FILLER_13_93
*676 FILLER_13_96
*677 FILLER_13_99
*678 FILLER_14_100
*679 FILLER_14_103
*680 FILLER_14_106
*681 FILLER_14_109
*682 FILLER_14_112
*683 FILLER_14_115
*684 FILLER_14_118
*685 FILLER_14_12
*686 FILLER_14_121
*687 FILLER_14_124
*688 FILLER_14_127
*689 FILLER_14_130
*690 FILLER_14_133
*691 FILLER_14_136
*692 FILLER_14_139
*693 FILLER_14_141
*694 FILLER_14_144
*695 FILLER_14_147
*696 FILLER_14_15
*697 FILLER_14_150
*698 FILLER_14_153
*699 FILLER_14_156
*700 FILLER_14_159
*701 FILLER_14_162
*702 FILLER_14_165
*703 FILLER_14_168
*704 FILLER_14_171
*705 FILLER_14_174
*706 FILLER_14_177
*707 FILLER_14_18
*708 FILLER_14_180
*709 FILLER_14_183
*710 FILLER_14_186
*711 FILLER_14_189
*712 FILLER_14_192
*713 FILLER_14_195
*714 FILLER_14_197
*715 FILLER_14_200
*716 FILLER_14_203
*717 FILLER_14_206
*718 FILLER_14_209
*719 FILLER_14_21
*720 FILLER_14_212
*721 FILLER_14_215
*722 FILLER_14_218
*723 FILLER_14_221
*724 FILLER_14_224
*725 FILLER_14_227
*726 FILLER_14_230
*727 FILLER_14_233
*728 FILLER_14_236
*729 FILLER_14_239
*730 FILLER_14_24
*731 FILLER_14_242
*732 FILLER_14_245
*733 FILLER_14_248
*734 FILLER_14_251
*735 FILLER_14_253
*736 FILLER_14_256
*737 FILLER_14_259
*738 FILLER_14_262
*739 FILLER_14_265
*740 FILLER_14_268
*741 FILLER_14_27
*742 FILLER_14_271
*743 FILLER_14_274
*744 FILLER_14_277
*745 FILLER_14_280
*746 FILLER_14_283
*747 FILLER_14_286
*748 FILLER_14_289
*749 FILLER_14_29
*750 FILLER_14_292
*751 FILLER_14_295
*752 FILLER_14_298
*753 FILLER_14_3
*754 FILLER_14_301
*755 FILLER_14_304
*756 FILLER_14_307
*757 FILLER_14_309
*758 FILLER_14_312
*759 FILLER_14_315
*760 FILLER_14_318
*761 FILLER_14_32
*762 FILLER_14_321
*763 FILLER_14_324
*764 FILLER_14_327
*765 FILLER_14_330
*766 FILLER_14_333
*767 FILLER_14_35
*768 FILLER_14_38
*769 FILLER_14_41
*770 FILLER_14_44
*771 FILLER_14_47
*772 FILLER_14_50
*773 FILLER_14_53
*774 FILLER_14_56
*775 FILLER_14_59
*776 FILLER_14_6
*777 FILLER_14_62
*778 FILLER_14_65
*779 FILLER_14_68
*780 FILLER_14_71
*781 FILLER_14_74
*782 FILLER_14_77
*783 FILLER_14_80
*784 FILLER_14_83
*785 FILLER_14_85
*786 FILLER_14_88
*787 FILLER_14_9
*788 FILLER_14_91
*789 FILLER_14_94
*790 FILLER_14_97
*791 FILLER_15_102
*792 FILLER_15_105
*793 FILLER_15_108
*794 FILLER_15_111
*795 FILLER_15_113
*796 FILLER_15_116
*797 FILLER_15_119
*798 FILLER_15_12
*799 FILLER_15_122
*800 FILLER_15_125
*801 FILLER_15_128
*802 FILLER_15_131
*803 FILLER_15_134
*804 FILLER_15_137
*805 FILLER_15_140
*806 FILLER_15_143
*807 FILLER_15_146
*808 FILLER_15_149
*809 FILLER_15_15
*810 FILLER_15_152
*811 FILLER_15_155
*812 FILLER_15_158
*813 FILLER_15_161
*814 FILLER_15_164
*815 FILLER_15_167
*816 FILLER_15_169
*817 FILLER_15_172
*818 FILLER_15_175
*819 FILLER_15_178
*820 FILLER_15_18
*821 FILLER_15_181
*822 FILLER_15_184
*823 FILLER_15_187
*824 FILLER_15_190
*825 FILLER_15_193
*826 FILLER_15_196
*827 FILLER_15_199
*828 FILLER_15_202
*829 FILLER_15_205
*830 FILLER_15_208
*831 FILLER_15_21
*832 FILLER_15_211
*833 FILLER_15_214
*834 FILLER_15_217
*835 FILLER_15_220
*836 FILLER_15_223
*837 FILLER_15_225
*838 FILLER_15_228
*839 FILLER_15_231
*840 FILLER_15_234
*841 FILLER_15_237
*842 FILLER_15_24
*843 FILLER_15_240
*844 FILLER_15_243
*845 FILLER_15_246
*846 FILLER_15_249
*847 FILLER_15_252
*848 FILLER_15_255
*849 FILLER_15_258
*850 FILLER_15_261
*851 FILLER_15_264
*852 FILLER_15_267
*853 FILLER_15_27
*854 FILLER_15_270
*855 FILLER_15_273
*856 FILLER_15_276
*857 FILLER_15_279
*858 FILLER_15_281
*859 FILLER_15_284
*860 FILLER_15_287
*861 FILLER_15_290
*862 FILLER_15_293
*863 FILLER_15_296
*864 FILLER_15_299
*865 FILLER_15_3
*866 FILLER_15_30
*867 FILLER_15_302
*868 FILLER_15_305
*869 FILLER_15_308
*870 FILLER_15_311
*871 FILLER_15_314
*872 FILLER_15_317
*873 FILLER_15_320
*874 FILLER_15_323
*875 FILLER_15_326
*876 FILLER_15_329
*877 FILLER_15_33
*878 FILLER_15_332
*879 FILLER_15_36
*880 FILLER_15_39
*881 FILLER_15_42
*882 FILLER_15_45
*883 FILLER_15_48
*884 FILLER_15_51
*885 FILLER_15_54
*886 FILLER_15_57
*887 FILLER_15_6
*888 FILLER_15_60
*889 FILLER_15_63
*890 FILLER_15_66
*891 FILLER_15_69
*892 FILLER_15_72
*893 FILLER_15_75
*894 FILLER_15_78
*895 FILLER_15_81
*896 FILLER_15_84
*897 FILLER_15_87
*898 FILLER_15_9
*899 FILLER_15_90
*900 FILLER_15_93
*901 FILLER_15_96
*902 FILLER_15_99
*903 FILLER_16_100
*904 FILLER_16_103
*905 FILLER_16_106
*906 FILLER_16_109
*907 FILLER_16_112
*908 FILLER_16_115
*909 FILLER_16_118
*910 FILLER_16_12
*911 FILLER_16_121
*912 FILLER_16_124
*913 FILLER_16_127
*914 FILLER_16_130
*915 FILLER_16_133
*916 FILLER_16_136
*917 FILLER_16_139
*918 FILLER_16_141
*919 FILLER_16_144
*920 FILLER_16_147
*921 FILLER_16_15
*922 FILLER_16_150
*923 FILLER_16_153
*924 FILLER_16_156
*925 FILLER_16_159
*926 FILLER_16_162
*927 FILLER_16_165
*928 FILLER_16_168
*929 FILLER_16_171
*930 FILLER_16_174
*931 FILLER_16_177
*932 FILLER_16_18
*933 FILLER_16_180
*934 FILLER_16_183
*935 FILLER_16_186
*936 FILLER_16_189
*937 FILLER_16_192
*938 FILLER_16_195
*939 FILLER_16_197
*940 FILLER_16_200
*941 FILLER_16_203
*942 FILLER_16_206
*943 FILLER_16_209
*944 FILLER_16_21
*945 FILLER_16_212
*946 FILLER_16_215
*947 FILLER_16_218
*948 FILLER_16_221
*949 FILLER_16_224
*950 FILLER_16_227
*951 FILLER_16_230
*952 FILLER_16_233
*953 FILLER_16_236
*954 FILLER_16_239
*955 FILLER_16_24
*956 FILLER_16_242
*957 FILLER_16_245
*958 FILLER_16_248
*959 FILLER_16_251
*960 FILLER_16_253
*961 FILLER_16_256
*962 FILLER_16_259
*963 FILLER_16_262
*964 FILLER_16_265
*965 FILLER_16_268
*966 FILLER_16_27
*967 FILLER_16_271
*968 FILLER_16_274
*969 FILLER_16_277
*970 FILLER_16_280
*971 FILLER_16_283
*972 FILLER_16_286
*973 FILLER_16_289
*974 FILLER_16_29
*975 FILLER_16_292
*976 FILLER_16_295
*977 FILLER_16_298
*978 FILLER_16_3
*979 FILLER_16_301
*980 FILLER_16_304
*981 FILLER_16_307
*982 FILLER_16_309
*983 FILLER_16_312
*984 FILLER_16_315
*985 FILLER_16_318
*986 FILLER_16_32
*987 FILLER_16_321
*988 FILLER_16_324
*989 FILLER_16_327
*990 FILLER_16_330
*991 FILLER_16_333
*992 FILLER_16_35
*993 FILLER_16_38
*994 FILLER_16_41
*995 FILLER_16_44
*996 FILLER_16_47
*997 FILLER_16_50
*998 FILLER_16_53
*999 FILLER_16_56
*1000 FILLER_16_59
*1001 FILLER_16_6
*1002 FILLER_16_62
*1003 FILLER_16_65
*1004 FILLER_16_68
*1005 FILLER_16_71
*1006 FILLER_16_74
*1007 FILLER_16_77
*1008 FILLER_16_80
*1009 FILLER_16_83
*1010 FILLER_16_85
*1011 FILLER_16_88
*1012 FILLER_16_9
*1013 FILLER_16_91
*1014 FILLER_16_94
*1015 FILLER_16_97
*1016 FILLER_17_102
*1017 FILLER_17_105
*1018 FILLER_17_108
*1019 FILLER_17_111
*1020 FILLER_17_113
*1021 FILLER_17_116
*1022 FILLER_17_119
*1023 FILLER_17_12
*1024 FILLER_17_122
*1025 FILLER_17_125
*1026 FILLER_17_128
*1027 FILLER_17_131
*1028 FILLER_17_134
*1029 FILLER_17_137
*1030 FILLER_17_140
*1031 FILLER_17_143
*1032 FILLER_17_146
*1033 FILLER_17_149
*1034 FILLER_17_15
*1035 FILLER_17_152
*1036 FILLER_17_155
*1037 FILLER_17_158
*1038 FILLER_17_161
*1039 FILLER_17_164
*1040 FILLER_17_167
*1041 FILLER_17_169
*1042 FILLER_17_172
*1043 FILLER_17_175
*1044 FILLER_17_178
*1045 FILLER_17_18
*1046 FILLER_17_181
*1047 FILLER_17_184
*1048 FILLER_17_187
*1049 FILLER_17_190
*1050 FILLER_17_193
*1051 FILLER_17_196
*1052 FILLER_17_199
*1053 FILLER_17_202
*1054 FILLER_17_205
*1055 FILLER_17_208
*1056 FILLER_17_21
*1057 FILLER_17_211
*1058 FILLER_17_214
*1059 FILLER_17_217
*1060 FILLER_17_220
*1061 FILLER_17_223
*1062 FILLER_17_225
*1063 FILLER_17_228
*1064 FILLER_17_231
*1065 FILLER_17_234
*1066 FILLER_17_237
*1067 FILLER_17_24
*1068 FILLER_17_240
*1069 FILLER_17_243
*1070 FILLER_17_246
*1071 FILLER_17_249
*1072 FILLER_17_252
*1073 FILLER_17_255
*1074 FILLER_17_258
*1075 FILLER_17_261
*1076 FILLER_17_264
*1077 FILLER_17_267
*1078 FILLER_17_27
*1079 FILLER_17_270
*1080 FILLER_17_273
*1081 FILLER_17_276
*1082 FILLER_17_279
*1083 FILLER_17_281
*1084 FILLER_17_284
*1085 FILLER_17_287
*1086 FILLER_17_290
*1087 FILLER_17_293
*1088 FILLER_17_296
*1089 FILLER_17_299
*1090 FILLER_17_3
*1091 FILLER_17_30
*1092 FILLER_17_302
*1093 FILLER_17_305
*1094 FILLER_17_308
*1095 FILLER_17_311
*1096 FILLER_17_314
*1097 FILLER_17_317
*1098 FILLER_17_320
*1099 FILLER_17_323
*1100 FILLER_17_326
*1101 FILLER_17_329
*1102 FILLER_17_33
*1103 FILLER_17_332
*1104 FILLER_17_36
*1105 FILLER_17_39
*1106 FILLER_17_42
*1107 FILLER_17_45
*1108 FILLER_17_48
*1109 FILLER_17_51
*1110 FILLER_17_54
*1111 FILLER_17_57
*1112 FILLER_17_6
*1113 FILLER_17_60
*1114 FILLER_17_63
*1115 FILLER_17_66
*1116 FILLER_17_69
*1117 FILLER_17_72
*1118 FILLER_17_75
*1119 FILLER_17_78
*1120 FILLER_17_81
*1121 FILLER_17_84
*1122 FILLER_17_87
*1123 FILLER_17_9
*1124 FILLER_17_90
*1125 FILLER_17_93
*1126 FILLER_17_96
*1127 FILLER_17_99
*1128 FILLER_18_100
*1129 FILLER_18_103
*1130 FILLER_18_106
*1131 FILLER_18_109
*1132 FILLER_18_112
*1133 FILLER_18_115
*1134 FILLER_18_118
*1135 FILLER_18_12
*1136 FILLER_18_121
*1137 FILLER_18_124
*1138 FILLER_18_127
*1139 FILLER_18_130
*1140 FILLER_18_133
*1141 FILLER_18_136
*1142 FILLER_18_139
*1143 FILLER_18_141
*1144 FILLER_18_144
*1145 FILLER_18_147
*1146 FILLER_18_15
*1147 FILLER_18_150
*1148 FILLER_18_153
*1149 FILLER_18_156
*1150 FILLER_18_159
*1151 FILLER_18_162
*1152 FILLER_18_165
*1153 FILLER_18_168
*1154 FILLER_18_171
*1155 FILLER_18_174
*1156 FILLER_18_177
*1157 FILLER_18_18
*1158 FILLER_18_180
*1159 FILLER_18_183
*1160 FILLER_18_186
*1161 FILLER_18_189
*1162 FILLER_18_192
*1163 FILLER_18_195
*1164 FILLER_18_197
*1165 FILLER_18_200
*1166 FILLER_18_203
*1167 FILLER_18_206
*1168 FILLER_18_209
*1169 FILLER_18_21
*1170 FILLER_18_212
*1171 FILLER_18_215
*1172 FILLER_18_218
*1173 FILLER_18_221
*1174 FILLER_18_224
*1175 FILLER_18_227
*1176 FILLER_18_230
*1177 FILLER_18_233
*1178 FILLER_18_236
*1179 FILLER_18_239
*1180 FILLER_18_24
*1181 FILLER_18_242
*1182 FILLER_18_245
*1183 FILLER_18_248
*1184 FILLER_18_251
*1185 FILLER_18_253
*1186 FILLER_18_256
*1187 FILLER_18_259
*1188 FILLER_18_262
*1189 FILLER_18_265
*1190 FILLER_18_268
*1191 FILLER_18_27
*1192 FILLER_18_271
*1193 FILLER_18_274
*1194 FILLER_18_277
*1195 FILLER_18_280
*1196 FILLER_18_283
*1197 FILLER_18_286
*1198 FILLER_18_289
*1199 FILLER_18_29
*1200 FILLER_18_292
*1201 FILLER_18_295
*1202 FILLER_18_298
*1203 FILLER_18_3
*1204 FILLER_18_301
*1205 FILLER_18_304
*1206 FILLER_18_307
*1207 FILLER_18_309
*1208 FILLER_18_312
*1209 FILLER_18_315
*1210 FILLER_18_318
*1211 FILLER_18_32
*1212 FILLER_18_321
*1213 FILLER_18_324
*1214 FILLER_18_327
*1215 FILLER_18_330
*1216 FILLER_18_333
*1217 FILLER_18_35
*1218 FILLER_18_38
*1219 FILLER_18_41
*1220 FILLER_18_44
*1221 FILLER_18_47
*1222 FILLER_18_50
*1223 FILLER_18_53
*1224 FILLER_18_56
*1225 FILLER_18_59
*1226 FILLER_18_6
*1227 FILLER_18_62
*1228 FILLER_18_65
*1229 FILLER_18_68
*1230 FILLER_18_71
*1231 FILLER_18_74
*1232 FILLER_18_77
*1233 FILLER_18_80
*1234 FILLER_18_83
*1235 FILLER_18_85
*1236 FILLER_18_88
*1237 FILLER_18_9
*1238 FILLER_18_91
*1239 FILLER_18_94
*1240 FILLER_18_97
*1241 FILLER_19_102
*1242 FILLER_19_105
*1243 FILLER_19_108
*1244 FILLER_19_111
*1245 FILLER_19_113
*1246 FILLER_19_116
*1247 FILLER_19_119
*1248 FILLER_19_12
*1249 FILLER_19_122
*1250 FILLER_19_125
*1251 FILLER_19_128
*1252 FILLER_19_131
*1253 FILLER_19_134
*1254 FILLER_19_137
*1255 FILLER_19_140
*1256 FILLER_19_143
*1257 FILLER_19_146
*1258 FILLER_19_149
*1259 FILLER_19_15
*1260 FILLER_19_152
*1261 FILLER_19_155
*1262 FILLER_19_158
*1263 FILLER_19_161
*1264 FILLER_19_164
*1265 FILLER_19_167
*1266 FILLER_19_169
*1267 FILLER_19_172
*1268 FILLER_19_175
*1269 FILLER_19_178
*1270 FILLER_19_18
*1271 FILLER_19_181
*1272 FILLER_19_184
*1273 FILLER_19_187
*1274 FILLER_19_190
*1275 FILLER_19_193
*1276 FILLER_19_196
*1277 FILLER_19_199
*1278 FILLER_19_202
*1279 FILLER_19_205
*1280 FILLER_19_208
*1281 FILLER_19_21
*1282 FILLER_19_211
*1283 FILLER_19_214
*1284 FILLER_19_217
*1285 FILLER_19_220
*1286 FILLER_19_223
*1287 FILLER_19_225
*1288 FILLER_19_228
*1289 FILLER_19_231
*1290 FILLER_19_234
*1291 FILLER_19_237
*1292 FILLER_19_24
*1293 FILLER_19_240
*1294 FILLER_19_243
*1295 FILLER_19_246
*1296 FILLER_19_249
*1297 FILLER_19_252
*1298 FILLER_19_255
*1299 FILLER_19_258
*1300 FILLER_19_261
*1301 FILLER_19_264
*1302 FILLER_19_267
*1303 FILLER_19_27
*1304 FILLER_19_270
*1305 FILLER_19_273
*1306 FILLER_19_276
*1307 FILLER_19_279
*1308 FILLER_19_281
*1309 FILLER_19_284
*1310 FILLER_19_287
*1311 FILLER_19_290
*1312 FILLER_19_293
*1313 FILLER_19_296
*1314 FILLER_19_299
*1315 FILLER_19_3
*1316 FILLER_19_30
*1317 FILLER_19_302
*1318 FILLER_19_305
*1319 FILLER_19_308
*1320 FILLER_19_311
*1321 FILLER_19_314
*1322 FILLER_19_317
*1323 FILLER_19_320
*1324 FILLER_19_323
*1325 FILLER_19_326
*1326 FILLER_19_329
*1327 FILLER_19_33
*1328 FILLER_19_332
*1329 FILLER_19_36
*1330 FILLER_19_39
*1331 FILLER_19_42
*1332 FILLER_19_45
*1333 FILLER_19_48
*1334 FILLER_19_51
*1335 FILLER_19_54
*1336 FILLER_19_57
*1337 FILLER_19_6
*1338 FILLER_19_60
*1339 FILLER_19_63
*1340 FILLER_19_66
*1341 FILLER_19_69
*1342 FILLER_19_72
*1343 FILLER_19_75
*1344 FILLER_19_78
*1345 FILLER_19_81
*1346 FILLER_19_84
*1347 FILLER_19_87
*1348 FILLER_19_9
*1349 FILLER_19_90
*1350 FILLER_19_93
*1351 FILLER_19_96
*1352 FILLER_19_99
*1353 FILLER_1_102
*1354 FILLER_1_105
*1355 FILLER_1_108
*1356 FILLER_1_111
*1357 FILLER_1_113
*1358 FILLER_1_116
*1359 FILLER_1_119
*1360 FILLER_1_12
*1361 FILLER_1_122
*1362 FILLER_1_125
*1363 FILLER_1_128
*1364 FILLER_1_131
*1365 FILLER_1_134
*1366 FILLER_1_137
*1367 FILLER_1_140
*1368 FILLER_1_143
*1369 FILLER_1_146
*1370 FILLER_1_149
*1371 FILLER_1_15
*1372 FILLER_1_152
*1373 FILLER_1_155
*1374 FILLER_1_158
*1375 FILLER_1_161
*1376 FILLER_1_164
*1377 FILLER_1_167
*1378 FILLER_1_169
*1379 FILLER_1_172
*1380 FILLER_1_175
*1381 FILLER_1_178
*1382 FILLER_1_18
*1383 FILLER_1_181
*1384 FILLER_1_184
*1385 FILLER_1_187
*1386 FILLER_1_190
*1387 FILLER_1_193
*1388 FILLER_1_196
*1389 FILLER_1_199
*1390 FILLER_1_202
*1391 FILLER_1_205
*1392 FILLER_1_208
*1393 FILLER_1_21
*1394 FILLER_1_211
*1395 FILLER_1_214
*1396 FILLER_1_217
*1397 FILLER_1_220
*1398 FILLER_1_223
*1399 FILLER_1_225
*1400 FILLER_1_228
*1401 FILLER_1_231
*1402 FILLER_1_234
*1403 FILLER_1_237
*1404 FILLER_1_24
*1405 FILLER_1_240
*1406 FILLER_1_243
*1407 FILLER_1_246
*1408 FILLER_1_249
*1409 FILLER_1_252
*1410 FILLER_1_255
*1411 FILLER_1_258
*1412 FILLER_1_261
*1413 FILLER_1_264
*1414 FILLER_1_267
*1415 FILLER_1_27
*1416 FILLER_1_270
*1417 FILLER_1_273
*1418 FILLER_1_276
*1419 FILLER_1_279
*1420 FILLER_1_281
*1421 FILLER_1_284
*1422 FILLER_1_287
*1423 FILLER_1_290
*1424 FILLER_1_293
*1425 FILLER_1_296
*1426 FILLER_1_299
*1427 FILLER_1_3
*1428 FILLER_1_30
*1429 FILLER_1_302
*1430 FILLER_1_305
*1431 FILLER_1_308
*1432 FILLER_1_311
*1433 FILLER_1_314
*1434 FILLER_1_317
*1435 FILLER_1_320
*1436 FILLER_1_323
*1437 FILLER_1_326
*1438 FILLER_1_329
*1439 FILLER_1_33
*1440 FILLER_1_332
*1441 FILLER_1_36
*1442 FILLER_1_39
*1443 FILLER_1_42
*1444 FILLER_1_45
*1445 FILLER_1_48
*1446 FILLER_1_51
*1447 FILLER_1_54
*1448 FILLER_1_57
*1449 FILLER_1_6
*1450 FILLER_1_60
*1451 FILLER_1_63
*1452 FILLER_1_66
*1453 FILLER_1_69
*1454 FILLER_1_72
*1455 FILLER_1_75
*1456 FILLER_1_78
*1457 FILLER_1_81
*1458 FILLER_1_84
*1459 FILLER_1_87
*1460 FILLER_1_9
*1461 FILLER_1_90
*1462 FILLER_1_93
*1463 FILLER_1_96
*1464 FILLER_1_99
*1465 FILLER_20_100
*1466 FILLER_20_103
*1467 FILLER_20_106
*1468 FILLER_20_109
*1469 FILLER_20_112
*1470 FILLER_20_115
*1471 FILLER_20_118
*1472 FILLER_20_12
*1473 FILLER_20_121
*1474 FILLER_20_124
*1475 FILLER_20_127
*1476 FILLER_20_130
*1477 FILLER_20_133
*1478 FILLER_20_136
*1479 FILLER_20_139
*1480 FILLER_20_141
*1481 FILLER_20_144
*1482 FILLER_20_147
*1483 FILLER_20_15
*1484 FILLER_20_150
*1485 FILLER_20_153
*1486 FILLER_20_156
*1487 FILLER_20_159
*1488 FILLER_20_162
*1489 FILLER_20_165
*1490 FILLER_20_168
*1491 FILLER_20_171
*1492 FILLER_20_174
*1493 FILLER_20_177
*1494 FILLER_20_18
*1495 FILLER_20_180
*1496 FILLER_20_183
*1497 FILLER_20_186
*1498 FILLER_20_189
*1499 FILLER_20_192
*1500 FILLER_20_195
*1501 FILLER_20_197
*1502 FILLER_20_200
*1503 FILLER_20_203
*1504 FILLER_20_206
*1505 FILLER_20_209
*1506 FILLER_20_21
*1507 FILLER_20_212
*1508 FILLER_20_215
*1509 FILLER_20_218
*1510 FILLER_20_221
*1511 FILLER_20_224
*1512 FILLER_20_227
*1513 FILLER_20_230
*1514 FILLER_20_233
*1515 FILLER_20_236
*1516 FILLER_20_239
*1517 FILLER_20_24
*1518 FILLER_20_242
*1519 FILLER_20_245
*1520 FILLER_20_248
*1521 FILLER_20_251
*1522 FILLER_20_253
*1523 FILLER_20_256
*1524 FILLER_20_259
*1525 FILLER_20_262
*1526 FILLER_20_265
*1527 FILLER_20_268
*1528 FILLER_20_27
*1529 FILLER_20_271
*1530 FILLER_20_274
*1531 FILLER_20_277
*1532 FILLER_20_280
*1533 FILLER_20_283
*1534 FILLER_20_286
*1535 FILLER_20_289
*1536 FILLER_20_29
*1537 FILLER_20_292
*1538 FILLER_20_295
*1539 FILLER_20_298
*1540 FILLER_20_3
*1541 FILLER_20_301
*1542 FILLER_20_304
*1543 FILLER_20_307
*1544 FILLER_20_309
*1545 FILLER_20_312
*1546 FILLER_20_315
*1547 FILLER_20_318
*1548 FILLER_20_32
*1549 FILLER_20_321
*1550 FILLER_20_324
*1551 FILLER_20_327
*1552 FILLER_20_330
*1553 FILLER_20_333
*1554 FILLER_20_35
*1555 FILLER_20_38
*1556 FILLER_20_41
*1557 FILLER_20_44
*1558 FILLER_20_47
*1559 FILLER_20_50
*1560 FILLER_20_53
*1561 FILLER_20_56
*1562 FILLER_20_59
*1563 FILLER_20_6
*1564 FILLER_20_62
*1565 FILLER_20_65
*1566 FILLER_20_68
*1567 FILLER_20_71
*1568 FILLER_20_74
*1569 FILLER_20_77
*1570 FILLER_20_80
*1571 FILLER_20_83
*1572 FILLER_20_85
*1573 FILLER_20_88
*1574 FILLER_20_9
*1575 FILLER_20_91
*1576 FILLER_20_94
*1577 FILLER_20_97
*1578 FILLER_21_102
*1579 FILLER_21_105
*1580 FILLER_21_108
*1581 FILLER_21_111
*1582 FILLER_21_113
*1583 FILLER_21_116
*1584 FILLER_21_119
*1585 FILLER_21_12
*1586 FILLER_21_122
*1587 FILLER_21_125
*1588 FILLER_21_128
*1589 FILLER_21_131
*1590 FILLER_21_134
*1591 FILLER_21_137
*1592 FILLER_21_140
*1593 FILLER_21_143
*1594 FILLER_21_146
*1595 FILLER_21_149
*1596 FILLER_21_15
*1597 FILLER_21_152
*1598 FILLER_21_155
*1599 FILLER_21_158
*1600 FILLER_21_161
*1601 FILLER_21_164
*1602 FILLER_21_167
*1603 FILLER_21_169
*1604 FILLER_21_172
*1605 FILLER_21_175
*1606 FILLER_21_178
*1607 FILLER_21_18
*1608 FILLER_21_181
*1609 FILLER_21_184
*1610 FILLER_21_187
*1611 FILLER_21_190
*1612 FILLER_21_193
*1613 FILLER_21_196
*1614 FILLER_21_199
*1615 FILLER_21_202
*1616 FILLER_21_205